  Page 1                                    Sat Jun 09 16:44:11 2018

  ******************************************************************
  *                           E P A N E T                          *
  *                   Hydraulic and Water Quality                  *
  *                   Analysis for Pipe Networks                   *
  *                         Version 2.00.12                        *
  ******************************************************************
  
  Analysis begun Sat Jun 09 16:44:11 2018

  Analysis ended Sat Jun 09 16:44:11 2018
