  Page 1                                    Wed Jun 27 10:37:31 2018

  ******************************************************************
  *                           E P A N E T                          *
  *                   Hydraulic and Water Quality                  *
  *                   Analysis for Pipe Networks                   *
  *                         Version 2.00.12                        *
  ******************************************************************
  
  Analysis begun Wed Jun 27 10:37:31 2018

  Analysis ended Wed Jun 27 10:37:32 2018
