  Page 1                                    Thu Jun 14 17:01:01 2018

  ******************************************************************
  *                           E P A N E T                          *
  *                   Hydraulic and Water Quality                  *
  *                   Analysis for Pipe Networks                   *
  *                         Version 2.00.12                        *
  ******************************************************************
  
  Analysis begun Thu Jun 14 17:01:01 2018

  Analysis ended Thu Jun 14 17:01:01 2018
