  Page 1                                    Sat May 26 16:15:28 2018

  ******************************************************************
  *                           E P A N E T                          *
  *                   Hydraulic and Water Quality                  *
  *                   Analysis for Pipe Networks                   *
  *                         Version 2.00.12                        *
  ******************************************************************
  
  Analysis begun Sat May 26 16:15:28 2018

  Analysis ended Sat May 26 16:15:28 2018
