  Page 1                                    Wed May 16 10:45:54 2018

  ******************************************************************
  *                           E P A N E T                          *
  *                   Hydraulic and Water Quality                  *
  *                   Analysis for Pipe Networks                   *
  *                         Version 2.00.12                        *
  ******************************************************************
  
  Analysis begun Wed May 16 10:45:54 2018

  Analysis ended Wed May 16 10:45:54 2018
