  Page 1                                    Thu May 10 20:19:06 2018

  ******************************************************************
  *                           E P A N E T                          *
  *                   Hydraulic and Water Quality                  *
  *                   Analysis for Pipe Networks                   *
  *                         Version 2.00.12                        *
  ******************************************************************
  
  Analysis begun Thu May 10 20:19:07 2018

  Analysis ended Thu May 10 20:19:12 2018
