  Page 1                                    Mon May 28 08:30:03 2018

  ******************************************************************
  *                           E P A N E T                          *
  *                   Hydraulic and Water Quality                  *
  *                   Analysis for Pipe Networks                   *
  *                         Version 2.00.12                        *
  ******************************************************************
  
  Analysis begun Mon May 28 08:30:03 2018

  Analysis ended Mon May 28 08:30:03 2018
