  Page 1                                    Fri May 11 08:45:10 2018

  ******************************************************************
  *                           E P A N E T                          *
  *                   Hydraulic and Water Quality                  *
  *                   Analysis for Pipe Networks                   *
  *                         Version 2.00.12                        *
  ******************************************************************
  
  Analysis begun Fri May 11 08:45:10 2018

  Analysis ended Fri May 11 08:45:10 2018
