  Page 1                                    Fri May 25 12:34:59 2018

  ******************************************************************
  *                           E P A N E T                          *
  *                   Hydraulic and Water Quality                  *
  *                   Analysis for Pipe Networks                   *
  *                         Version 2.00.12                        *
  ******************************************************************
  
  Analysis begun Fri May 25 12:35:00 2018

  Analysis ended Fri May 25 12:35:00 2018
