  Page 1                                    Sat Jun 02 10:22:55 2018

  ******************************************************************
  *                           E P A N E T                          *
  *                   Hydraulic and Water Quality                  *
  *                   Analysis for Pipe Networks                   *
  *                         Version 2.00.12                        *
  ******************************************************************
  
  Analysis begun Sat Jun 02 10:22:56 2018

  Analysis ended Sat Jun 02 10:22:56 2018
